Version 4
SHEET 1 1484 728
WIRE 816 -352 672 -352
WIRE 1024 -352 896 -352
WIRE -80 -272 -240 -272
WIRE 80 -272 0 -272
WIRE 672 -256 672 -352
WIRE 832 -256 672 -256
WIRE -736 -176 -784 -176
WIRE -704 -176 -736 -176
WIRE -240 -176 -240 -272
WIRE -240 -176 -288 -176
WIRE -176 -176 -240 -176
WIRE 1024 -176 1024 -352
WIRE -240 -160 -240 -176
WIRE -176 -160 -176 -176
WIRE -128 -160 -176 -160
WIRE -736 -144 -736 -176
WIRE 80 -144 80 -272
WIRE 80 -144 -64 -144
WIRE 144 -144 80 -144
WIRE 480 -144 368 -144
WIRE 672 -144 672 -256
WIRE 672 -144 560 -144
WIRE 720 -144 672 -144
WIRE -128 -128 -176 -128
WIRE 896 -128 896 -256
WIRE 896 -128 784 -128
WIRE 960 -128 896 -128
WIRE 720 -112 672 -112
WIRE -96 -80 -96 -112
WIRE -240 -48 -240 -80
WIRE -240 -48 -304 -48
WIRE -176 -48 -176 -128
WIRE -176 -48 -240 -48
WIRE 672 -48 672 -112
WIRE 1024 -48 1024 -80
WIRE 752 0 752 -96
WIRE -1248 64 -1328 64
WIRE -1328 128 -1328 64
WIRE -1184 128 -1328 128
WIRE -992 128 -1184 128
WIRE -992 176 -992 128
WIRE -1024 192 -1088 192
WIRE -1328 208 -1328 128
WIRE -896 208 -960 208
WIRE -816 208 -896 208
WIRE 608 208 544 208
WIRE 736 208 672 208
WIRE -1184 224 -1184 208
WIRE -1024 224 -1184 224
WIRE -1184 256 -1184 224
WIRE -992 272 -992 240
WIRE 544 288 544 208
WIRE 608 288 544 288
WIRE 736 288 736 208
WIRE 736 288 688 288
WIRE -1328 336 -1328 288
WIRE -1184 336 -1328 336
WIRE -1328 368 -1328 336
WIRE -448 368 -528 368
WIRE -336 368 -448 368
WIRE -192 368 -272 368
WIRE -16 368 -112 368
WIRE 112 368 -16 368
WIRE -1088 400 -1088 192
WIRE -896 400 -896 208
WIRE -896 400 -1088 400
WIRE -16 400 -16 368
WIRE -448 416 -448 368
WIRE 224 448 224 416
WIRE 112 464 112 368
WIRE 208 464 112 464
WIRE 256 464 256 288
WIRE 640 464 640 448
WIRE 544 480 544 288
WIRE 544 480 272 480
WIRE 608 480 544 480
WIRE -16 496 -16 480
WIRE -16 496 -96 496
WIRE 208 496 -16 496
WIRE 736 496 736 288
WIRE 736 496 672 496
WIRE 800 496 736 496
WIRE 992 496 864 496
WIRE 1104 496 992 496
WIRE 608 512 512 512
WIRE 992 512 992 496
WIRE -96 544 -96 496
WIRE -448 560 -448 496
WIRE 512 560 512 512
WIRE 224 576 224 512
WIRE 640 576 640 528
WIRE 992 624 992 592
FLAG 640 576 0
FLAG -448 560 0
FLAG 992 624 0
FLAG 752 0 0
FLAG 224 576 0
FLAG -1328 368 0
FLAG -528 368 Signal_In
IOPIN -528 368 In
FLAG 1104 496 Signal_Out
IOPIN 1104 496 Out
FLAG -816 208 VBias
IOPIN -816 208 Out
FLAG -1248 64 VCC
IOPIN -1248 64 Out
FLAG 224 416 VCC
IOPIN 224 416 In
FLAG 512 560 VBias
IOPIN 512 560 In
FLAG 752 -160 VCC
IOPIN 752 -160 In
FLAG 640 448 VCC
IOPIN 640 448 In
FLAG -96 544 VBias
IOPIN -96 544 In
FLAG -992 272 0
FLAG 672 -48 VBias
IOPIN 672 -48 In
FLAG 256 288 I_VCA
IOPIN 256 288 In
FLAG 1024 -48 I_VCA
IOPIN 1024 -48 Out
FLAG 368 -144 GAIN
IOPIN 368 -144 In
FLAG -304 -48 VBias
IOPIN -304 -48 In
FLAG 144 -144 GAIN
IOPIN 144 -144 Out
FLAG -96 -176 VCC
IOPIN -96 -176 In
FLAG -96 -80 0
FLAG -736 -80 0
FLAG -864 -176 PWM_3
IOPIN -864 -176 In
FLAG -704 -176 V_VCA
IOPIN -704 -176 Out
FLAG -368 -176 V_VCA
IOPIN -368 -176 In
SYMBOL pnp 960 -80 M180
SYMATTR InstName Q1
SYMATTR Value 2N3906
SYMBOL res 912 -368 R90
WINDOW 0 0 56 VBottom 2
WINDOW 3 32 56 VTop 2
SYMATTR InstName R1
SYMATTR Value 2.7k
SYMBOL cap 896 -272 R90
WINDOW 0 0 32 VBottom 2
WINDOW 3 32 32 VTop 2
SYMATTR InstName C2
SYMATTR Value 100n
SYMBOL res 576 -160 R90
WINDOW 0 0 56 VBottom 2
WINDOW 3 32 56 VTop 2
SYMATTR InstName R5
SYMATTR Value 6.8k
SYMBOL voltage -1328 192 R0
WINDOW 123 0 0 Left 2
WINDOW 39 0 0 Left 2
SYMATTR InstName V2
SYMATTR Value 5
SYMBOL CA3080A 240 480 R0
SYMATTR InstName X1
SYMBOL res 704 272 R90
WINDOW 0 0 56 VBottom 2
WINDOW 3 32 56 VTop 2
SYMATTR InstName R2
SYMATTR Value 22k
SYMBOL cap 672 192 R90
WINDOW 0 0 32 VBottom 2
WINDOW 3 32 32 VTop 2
SYMATTR InstName C1
SYMATTR Value 100p
SYMBOL voltage -448 400 R0
WINDOW 123 0 0 Left 2
WINDOW 39 0 0 Left 2
WINDOW 3 22 114 Left 2
SYMATTR Value SINE(0 2.0 20)
SYMATTR InstName V4
SYMBOL res -96 352 R90
WINDOW 0 0 56 VBottom 2
WINDOW 3 32 56 VTop 2
SYMATTR InstName R4
SYMATTR Value 18k
SYMBOL res 0 496 R180
WINDOW 0 36 76 Left 2
WINDOW 3 36 40 Left 2
SYMATTR InstName R8
SYMATTR Value 150
SYMBOL cap 864 480 R90
WINDOW 0 0 32 VBottom 2
WINDOW 3 32 32 VTop 2
SYMATTR InstName C4
SYMATTR Value 1µ
SYMBOL res 976 496 R0
SYMATTR InstName R6
SYMATTR Value 470k
SYMBOL cap -272 352 R90
WINDOW 0 0 32 VBottom 2
WINDOW 3 32 32 VTop 2
SYMATTR InstName C5
SYMATTR Value 10µ
SYMBOL res -1200 112 R0
SYMATTR InstName R13
SYMATTR Value 33k
SYMBOL res -1168 352 R180
WINDOW 0 36 76 Left 2
WINDOW 3 36 40 Left 2
SYMATTR InstName R14
SYMATTR Value 33k
SYMBOL TL072 -992 144 R0
SYMATTR InstName U3
SYMBOL Opamps\\TLV247xA 752 -192 R0
SYMATTR InstName U1
SYMBOL Opamps\\TLV247xA 640 432 R0
SYMATTR InstName U2
SYMBOL res 16 -288 R90
WINDOW 0 0 56 VBottom 2
WINDOW 3 32 56 VTop 2
SYMATTR InstName R3
SYMATTR Value 47k
SYMBOL res -272 -192 R90
WINDOW 0 0 56 VBottom 2
WINDOW 3 32 56 VTop 2
SYMATTR InstName R7
SYMATTR Value 22k
SYMBOL res -768 -192 R90
WINDOW 0 0 56 VBottom 2
WINDOW 3 32 56 VTop 2
SYMATTR InstName R10
SYMBOL Opamps\\TLV247xA -96 -208 R0
SYMATTR InstName U4
SYMBOL res -256 -176 R0
SYMATTR InstName R9
SYMATTR Value 22k
SYMBOL cap -752 -144 R0
SYMATTR InstName C3
TEXT -736 696 Left 2 !.tran 0 0.2 0.1 0.01
