Version 4
SHEET 1 1484 728
WIRE 48 -384 -96 -384
WIRE 256 -384 128 -384
WIRE -1264 -320 -1344 -320
WIRE -96 -288 -96 -384
WIRE 64 -288 -96 -288
WIRE -1344 -256 -1344 -320
WIRE -1200 -256 -1344 -256
WIRE -1008 -256 -1200 -256
WIRE -1008 -208 -1008 -256
WIRE 256 -208 256 -384
WIRE -1040 -192 -1104 -192
WIRE -1344 -176 -1344 -256
WIRE -912 -176 -976 -176
WIRE -832 -176 -912 -176
WIRE -352 -176 -400 -176
WIRE -288 -176 -352 -176
WIRE -96 -176 -96 -288
WIRE -96 -176 -208 -176
WIRE -48 -176 -96 -176
WIRE -1200 -160 -1200 -176
WIRE -1040 -160 -1200 -160
WIRE 128 -160 128 -288
WIRE 128 -160 16 -160
WIRE 192 -160 128 -160
WIRE -48 -144 -96 -144
WIRE -1200 -128 -1200 -160
WIRE -352 -128 -352 -176
WIRE -1008 -112 -1008 -144
WIRE -96 -80 -96 -144
WIRE -16 -80 -16 -128
WIRE -16 -80 -96 -80
WIRE -1344 -48 -1344 -96
WIRE -1200 -48 -1344 -48
WIRE -16 -32 -16 -80
WIRE -1344 -16 -1344 -48
WIRE -352 0 -352 -48
WIRE -1104 16 -1104 -192
WIRE -912 16 -912 -176
WIRE -912 16 -1104 16
WIRE 608 208 544 208
WIRE 736 208 672 208
WIRE 544 288 544 208
WIRE 608 288 544 288
WIRE 736 288 736 208
WIRE 736 288 688 288
WIRE -448 368 -528 368
WIRE -336 368 -448 368
WIRE -192 368 -272 368
WIRE -16 368 -112 368
WIRE 112 368 -16 368
WIRE -16 400 -16 368
WIRE -448 416 -448 368
WIRE 224 448 224 416
WIRE 112 464 112 368
WIRE 208 464 112 464
WIRE 256 464 256 -112
WIRE 640 464 640 448
WIRE 544 480 544 288
WIRE 544 480 272 480
WIRE 608 480 544 480
WIRE -16 496 -16 480
WIRE -16 496 -96 496
WIRE 208 496 -16 496
WIRE 736 496 736 288
WIRE 736 496 672 496
WIRE 800 496 736 496
WIRE 992 496 864 496
WIRE 1104 496 992 496
WIRE 608 512 512 512
WIRE 992 512 992 496
WIRE -96 544 -96 496
WIRE -448 560 -448 496
WIRE 512 560 512 512
WIRE 224 576 224 512
WIRE 640 576 640 528
WIRE 992 624 992 592
FLAG -400 -176 Gain
IOPIN -400 -176 In
FLAG 640 576 0
FLAG -352 0 0
FLAG -448 560 0
FLAG 992 624 0
FLAG -16 -32 0
FLAG 224 576 0
FLAG -1344 -16 0
FLAG -528 368 Signal_In
IOPIN -528 368 In
FLAG 1104 496 Signal_Out
IOPIN 1104 496 Out
FLAG -832 -176 VBias
IOPIN -832 -176 Out
FLAG -1264 -320 VCC
IOPIN -1264 -320 Out
FLAG 224 416 VCC
IOPIN 224 416 In
FLAG 512 560 VBias
IOPIN 512 560 In
FLAG -16 -192 VCC
IOPIN -16 -192 In
FLAG 640 448 VCC
IOPIN 640 448 In
FLAG -96 544 VBias
IOPIN -96 544 In
FLAG -1008 -112 0
SYMBOL pnp 192 -112 M180
SYMATTR InstName Q1
SYMATTR Value 2N3906
SYMBOL res 144 -400 R90
WINDOW 0 0 56 VBottom 2
WINDOW 3 32 56 VTop 2
SYMATTR InstName R1
SYMATTR Value 2.7k
SYMBOL cap 128 -304 R90
WINDOW 0 0 32 VBottom 2
WINDOW 3 32 32 VTop 2
SYMATTR InstName C2
SYMATTR Value 100n
SYMBOL res -192 -192 R90
WINDOW 0 0 56 VBottom 2
WINDOW 3 32 56 VTop 2
SYMATTR InstName R5
SYMATTR Value 1k
SYMBOL voltage -352 -144 R0
WINDOW 123 0 0 Left 2
WINDOW 39 0 0 Left 2
SYMATTR InstName V1
SYMATTR Value 2.5
SYMBOL voltage -1344 -192 R0
WINDOW 123 0 0 Left 2
WINDOW 39 0 0 Left 2
SYMATTR InstName V2
SYMATTR Value 5
SYMBOL CA3080A 240 480 R0
SYMATTR InstName X1
SYMBOL res 704 272 R90
WINDOW 0 0 56 VBottom 2
WINDOW 3 32 56 VTop 2
SYMATTR InstName R2
SYMATTR Value 20k
SYMBOL cap 672 192 R90
WINDOW 0 0 32 VBottom 2
WINDOW 3 32 32 VTop 2
SYMATTR InstName C1
SYMATTR Value 100p
SYMBOL voltage -448 400 R0
WINDOW 123 0 0 Left 2
WINDOW 39 0 0 Left 2
WINDOW 3 22 114 Left 2
SYMATTR Value SINE(0 2.5 20)
SYMATTR InstName V4
SYMBOL res -96 352 R90
WINDOW 0 0 56 VBottom 2
WINDOW 3 32 56 VTop 2
SYMATTR InstName R4
SYMATTR Value 20k
SYMBOL res 0 496 R180
WINDOW 0 36 76 Left 2
WINDOW 3 36 40 Left 2
SYMATTR InstName R8
SYMATTR Value 220
SYMBOL cap 864 480 R90
WINDOW 0 0 32 VBottom 2
WINDOW 3 32 32 VTop 2
SYMATTR InstName C4
SYMATTR Value 1µ
SYMBOL res 976 496 R0
SYMATTR InstName R6
SYMATTR Value 470k
SYMBOL cap -272 352 R90
WINDOW 0 0 32 VBottom 2
WINDOW 3 32 32 VTop 2
SYMATTR InstName C5
SYMATTR Value 10µ
SYMBOL res -1216 -272 R0
SYMATTR InstName R13
SYMATTR Value 33k
SYMBOL res -1184 -32 R180
WINDOW 0 36 76 Left 2
WINDOW 3 36 40 Left 2
SYMATTR InstName R14
SYMATTR Value 33k
SYMBOL TL072 -1008 -240 R0
SYMATTR InstName U3
SYMBOL Opamps\\UniversalOpamp2 640 496 R0
SYMATTR InstName U2
SYMBOL Opamps\\UniversalOpamp2 -16 -160 R0
SYMATTR InstName U1
TEXT -736 696 Left 2 !.tran 0 0.2 0.1 0.01
